Version 4
SHEET 1 1336 948
WIRE -704 -112 -736 -112
WIRE -624 -112 -624 -128
WIRE -624 -112 -640 -112
WIRE -608 -112 -624 -112
WIRE -448 -112 -528 -112
WIRE -736 -80 -736 -112
WIRE -624 -16 -624 -112
WIRE -544 -16 -624 -16
WIRE -448 0 -448 -112
WIRE -448 0 -480 0
WIRE -544 16 -624 16
WIRE -736 112 -768 112
WIRE -624 112 -624 16
WIRE -624 112 -656 112
WIRE -592 112 -624 112
WIRE -448 112 -448 0
WIRE -448 112 -512 112
WIRE -624 144 -624 112
WIRE -80 144 -80 128
WIRE 416 144 320 144
WIRE 592 144 496 144
WIRE 672 144 592 144
WIRE 880 144 736 144
WIRE 992 144 880 144
WIRE 1088 144 992 144
WIRE 1184 144 1088 144
WIRE 592 176 592 144
WIRE 1184 176 1184 144
WIRE 320 192 320 144
WIRE 880 192 880 144
WIRE 992 192 992 144
WIRE 1088 192 1088 144
WIRE -624 256 -624 224
WIRE 320 304 320 256
WIRE 592 304 592 272
WIRE 592 304 320 304
WIRE 880 304 880 256
WIRE 880 304 592 304
WIRE 992 304 992 256
WIRE 992 304 880 304
WIRE 1088 304 1088 256
WIRE 1088 304 992 304
WIRE 1184 304 1184 256
WIRE 1184 304 1088 304
WIRE -80 320 -80 304
WIRE 320 336 320 304
WIRE -624 592 -624 560
WIRE -624 688 -624 672
WIRE -624 688 -736 688
WIRE -608 688 -624 688
WIRE -624 704 -624 688
WIRE -736 768 -736 688
WIRE -624 816 -624 784
WIRE -736 912 -736 832
WIRE -624 912 -624 896
WIRE -624 912 -736 912
WIRE -624 928 -624 912
FLAG 336 512 0
FLAG 336 432 Vs
FLAG 992 144 Vout
FLAG 320 144 Vs
FLAG 320 336 0
FLAG -624 256 0
FLAG -512 -32 Vcc
FLAG -512 32 0
FLAG -736 -80 0
FLAG -768 112 Vcc
FLAG -624 -128 Vtri
FLAG -80 128 Vg
FLAG 544 256 Vg
FLAG -80 320 0
FLAG 480 512 0
FLAG 480 432 Vcc
FLAG -624 928 0
FLAG -624 480 Vcc
FLAG -608 688 Vref
SYMBOL ind 400 160 R270
WINDOW 0 32 56 VTop 2
WINDOW 3 5 56 VBottom 2
SYMATTR InstName L1
SYMATTR Value 3m3
SYMBOL nmos 544 176 R0
SYMATTR InstName M1
SYMATTR Value FDS2734
SYMBOL diode 672 160 R270
WINDOW 0 32 32 VTop 2
WINDOW 3 0 32 VBottom 2
SYMATTR InstName D1
SYMATTR Value RFUH20NS3S
SYMBOL cap 304 192 R0
SYMATTR InstName C1
SYMATTR Value 1µ
SYMBOL cap 976 192 R0
SYMATTR InstName C2
SYMATTR Value 1µ
SYMBOL voltage 336 416 R0
WINDOW 123 0 0 Left 0
WINDOW 39 24 124 Left 2
SYMATTR SpiceLine Rser=1
SYMATTR InstName Vs
SYMATTR Value 12
SYMBOL res 1168 160 R0
SYMATTR InstName Load
SYMATTR Value 13k
SYMBOL res -640 128 R0
SYMATTR InstName R7
SYMATTR Value 10K
SYMBOL res -640 96 R90
WINDOW 0 0 56 VBottom 2
WINDOW 3 32 56 VTop 2
SYMATTR InstName R8
SYMATTR Value 10K
SYMBOL res -496 96 R90
WINDOW 0 0 56 VBottom 2
WINDOW 3 32 56 VTop 2
SYMATTR InstName R9
SYMATTR Value 8k2
SYMBOL res -512 -128 R90
WINDOW 0 0 56 VBottom 2
WINDOW 3 32 56 VTop 2
SYMATTR InstName R10
SYMATTR Value 560
SYMBOL cap -640 -128 R90
WINDOW 0 0 32 VBottom 2
WINDOW 3 32 32 VTop 2
SYMATTR InstName C4
SYMATTR Value 22n
SYMATTR SpiceLine IC=2
SYMBOL OpAmps\\UniversalOpAmp2 -512 0 R0
SYMATTR InstName U2
SYMBOL bv -80 208 R0
SYMATTR InstName B1
SYMATTR Value V=if(3.475>V(Vtri), 12, 0)
SYMBOL res -96 128 R0
SYMATTR InstName R11
SYMATTR Value 1
SYMBOL res 880 80 R90
WINDOW 0 0 56 VBottom 2
WINDOW 3 32 56 VTop 2
SYMATTR InstName R5
SYMATTR Value 100
SYMBOL cap 864 192 R0
SYMATTR InstName C5
SYMATTR Value 1µ
SYMBOL res 992 80 R90
WINDOW 0 0 56 VBottom 2
WINDOW 3 32 56 VTop 2
SYMATTR InstName R6
SYMATTR Value 100
SYMBOL cap 1072 192 R0
SYMATTR InstName C6
SYMATTR Value 2µ
SYMBOL voltage 480 416 R0
WINDOW 123 0 0 Left 0
WINDOW 39 0 0 Left 0
SYMATTR InstName V1
SYMATTR Value 5
SYMBOL res -640 464 R0
SYMATTR InstName R1
SYMATTR Value 50k
SYMBOL res -640 576 R0
SYMATTR InstName R2
SYMATTR Value 25.5k
SYMBOL res -640 688 R0
SYMATTR InstName R3
SYMATTR Value 24.5k
SYMBOL res -640 800 R0
SYMATTR InstName R4
SYMATTR Value 150k
SYMBOL cap -752 768 R0
SYMATTR InstName C3
SYMATTR Value 100n
SYMATTR SpiceLine IC=0
TEXT 552 544 Left 2 !.tran 0 500m 0
TEXT -136 384 Left 2 ;Comparator+gate driver
TEXT 736 344 Left 2 ;Boost stage
TEXT -504 176 Left 2 ;Oscillator
TEXT -568 720 Left 2 ;Potentiometer=50k
TEXT -984 744 Left 2 ;Soft start cap
RECTANGLE Normal -672 784 -560 576 2
