Version 4
SHEET 1 1904 680
WIRE -832 -176 -864 -176
WIRE -752 -176 -768 -176
WIRE -736 -176 -752 -176
WIRE -576 -176 -656 -176
WIRE -240 -176 -256 -176
WIRE -864 -144 -864 -176
WIRE -240 -144 -240 -176
WIRE -432 -128 -480 -128
WIRE -336 -128 -336 -176
WIRE -336 -128 -368 -128
WIRE -288 -128 -336 -128
WIRE -752 -80 -752 -176
WIRE -672 -80 -752 -80
WIRE -336 -80 -336 -128
WIRE -576 -64 -576 -176
WIRE -576 -64 -608 -64
WIRE -480 -64 -480 -128
WIRE -480 -64 -576 -64
WIRE -672 -48 -720 -48
WIRE -240 -32 -240 -48
WIRE -64 -32 -240 -32
WIRE 0 -32 -64 -32
WIRE 96 -32 64 -32
WIRE 224 -32 96 -32
WIRE 256 -32 224 -32
WIRE 352 -32 320 -32
WIRE 480 -32 352 -32
WIRE 512 -32 480 -32
WIRE 608 -32 576 -32
WIRE 736 -32 608 -32
WIRE 768 -32 736 -32
WIRE 864 -32 832 -32
WIRE 992 -32 864 -32
WIRE 1024 -32 992 -32
WIRE 1120 -32 1088 -32
WIRE 1248 -32 1120 -32
WIRE 1280 -32 1248 -32
WIRE 1376 -32 1344 -32
WIRE 1504 -32 1376 -32
WIRE 1536 -32 1504 -32
WIRE 1632 -32 1600 -32
WIRE 1760 -32 1632 -32
WIRE -240 -16 -240 -32
WIRE 96 0 96 -32
WIRE 224 0 224 -32
WIRE 352 0 352 -32
WIRE 480 0 480 -32
WIRE 608 0 608 -32
WIRE 736 0 736 -32
WIRE 864 0 864 -32
WIRE 992 0 992 -32
WIRE 1120 0 1120 -32
WIRE 1248 0 1248 -32
WIRE 1376 0 1376 -32
WIRE 1504 0 1504 -32
WIRE 1632 0 1632 -32
WIRE 1760 0 1760 -32
WIRE -480 64 -480 -64
WIRE -432 64 -480 64
WIRE -336 64 -336 0
WIRE -336 64 -368 64
WIRE -288 64 -336 64
WIRE 1760 80 1760 64
WIRE -832 96 -864 96
WIRE -720 96 -720 -48
WIRE -720 96 -752 96
WIRE -688 96 -720 96
WIRE -576 96 -576 -64
WIRE -576 96 -608 96
WIRE 96 96 96 64
WIRE 128 96 96 96
WIRE 224 96 224 64
WIRE 224 96 192 96
WIRE 352 96 352 64
WIRE 352 96 224 96
WIRE 384 96 352 96
WIRE 480 96 480 64
WIRE 480 96 448 96
WIRE 608 96 608 64
WIRE 608 96 480 96
WIRE 640 96 608 96
WIRE 736 96 736 64
WIRE 736 96 704 96
WIRE 864 96 864 64
WIRE 864 96 736 96
WIRE 896 96 864 96
WIRE 992 96 992 64
WIRE 992 96 960 96
WIRE 1120 96 1120 64
WIRE 1120 96 992 96
WIRE 1152 96 1120 96
WIRE 1248 96 1248 64
WIRE 1248 96 1216 96
WIRE 1376 96 1376 64
WIRE 1376 96 1248 96
WIRE 1408 96 1376 96
WIRE 1504 96 1504 64
WIRE 1504 96 1472 96
WIRE 1632 96 1632 64
WIRE 1632 96 1504 96
WIRE 1664 96 1632 96
WIRE 1760 96 1760 80
WIRE 1760 96 1728 96
WIRE -720 128 -720 96
WIRE -336 128 -336 64
WIRE -240 128 -240 80
WIRE -240 128 -256 128
WIRE 96 128 96 96
WIRE -240 144 -240 128
WIRE 1760 144 1760 96
WIRE 1824 144 1760 144
WIRE 1760 224 1760 208
WIRE 1824 224 1760 224
WIRE -720 240 -720 208
WIRE 1824 256 1824 224
FLAG -64 -32 sqr
FLAG 96 128 0
FLAG 1760 80 out
FLAG 1824 256 0
FLAG -720 240 0
FLAG -1056 96 0
FLAG -1056 16 Vi
FLAG -640 -96 Vi
FLAG -640 -32 0
FLAG -864 -144 0
FLAG -864 96 Vi
FLAG -1184 96 0
FLAG -1184 16 Vcc
FLAG -240 -176 Vcc
FLAG -240 144 0
SYMBOL cap 64 -48 R90
WINDOW 0 0 32 VBottom 2
WINDOW 3 32 32 VTop 2
SYMATTR InstName C1
SYMATTR Value 22µ
SYMBOL schottky 112 64 R180
WINDOW 0 24 64 Left 2
WINDOW 3 24 0 Left 2
SYMATTR InstName D1
SYMATTR Value CMDSH2-3
SYMBOL cap 192 80 R90
WINDOW 0 0 32 VBottom 2
WINDOW 3 32 32 VTop 2
SYMATTR InstName C2
SYMATTR Value 22µ
SYMBOL schottky 208 0 R0
SYMATTR InstName D2
SYMATTR Value CMDSH2-3
SYMBOL schottky 368 64 R180
WINDOW 0 24 64 Left 2
WINDOW 3 24 0 Left 2
SYMATTR InstName D3
SYMATTR Value CMDSH2-3
SYMBOL cap 448 80 R90
WINDOW 0 0 32 VBottom 2
WINDOW 3 32 32 VTop 2
SYMATTR InstName C3
SYMATTR Value 22µ
SYMBOL schottky 464 0 R0
SYMATTR InstName D4
SYMATTR Value CMDSH2-3
SYMBOL cap 320 -48 R90
WINDOW 0 0 32 VBottom 2
WINDOW 3 32 32 VTop 2
SYMATTR InstName C4
SYMATTR Value 22µ
SYMBOL schottky 624 64 R180
WINDOW 0 24 64 Left 2
WINDOW 3 24 0 Left 2
SYMATTR InstName D5
SYMATTR Value CMDSH2-3
SYMBOL cap 704 80 R90
WINDOW 0 0 32 VBottom 2
WINDOW 3 32 32 VTop 2
SYMATTR InstName C5
SYMATTR Value 22µ
SYMBOL schottky 720 0 R0
SYMATTR InstName D6
SYMATTR Value CMDSH2-3
SYMBOL cap 576 -48 R90
WINDOW 0 0 32 VBottom 2
WINDOW 3 32 32 VTop 2
SYMATTR InstName C6
SYMATTR Value 22µ
SYMBOL schottky 880 64 R180
WINDOW 0 24 64 Left 2
WINDOW 3 24 0 Left 2
SYMATTR InstName D7
SYMATTR Value CMDSH2-3
SYMBOL cap 960 80 R90
WINDOW 0 0 32 VBottom 2
WINDOW 3 32 32 VTop 2
SYMATTR InstName C7
SYMATTR Value 22µ
SYMBOL schottky 976 0 R0
SYMATTR InstName D8
SYMATTR Value CMDSH2-3
SYMBOL cap 832 -48 R90
WINDOW 0 0 32 VBottom 2
WINDOW 3 32 32 VTop 2
SYMATTR InstName C8
SYMATTR Value 22µ
SYMBOL schottky 1136 64 R180
WINDOW 0 24 64 Left 2
WINDOW 3 24 0 Left 2
SYMATTR InstName D9
SYMATTR Value CMDSH2-3
SYMBOL cap 1216 80 R90
WINDOW 0 0 32 VBottom 2
WINDOW 3 32 32 VTop 2
SYMATTR InstName C9
SYMATTR Value 22µ
SYMBOL schottky 1232 0 R0
SYMATTR InstName D10
SYMATTR Value CMDSH2-3
SYMBOL cap 1088 -48 R90
WINDOW 0 0 32 VBottom 2
WINDOW 3 32 32 VTop 2
SYMATTR InstName C10
SYMATTR Value 22µ
SYMBOL schottky 1392 64 R180
WINDOW 0 24 64 Left 2
WINDOW 3 24 0 Left 2
SYMATTR InstName D11
SYMATTR Value CMDSH2-3
SYMBOL cap 1472 80 R90
WINDOW 0 0 32 VBottom 2
WINDOW 3 32 32 VTop 2
SYMATTR InstName C11
SYMATTR Value 22µ
SYMBOL schottky 1488 0 R0
SYMATTR InstName D12
SYMATTR Value CMDSH2-3
SYMBOL cap 1344 -48 R90
WINDOW 0 0 32 VBottom 2
WINDOW 3 32 32 VTop 2
SYMATTR InstName C12
SYMATTR Value 22µ
SYMBOL schottky 1648 64 R180
WINDOW 0 24 64 Left 2
WINDOW 3 24 0 Left 2
SYMATTR InstName D13
SYMATTR Value CMDSH2-3
SYMBOL cap 1728 80 R90
WINDOW 0 0 32 VBottom 2
WINDOW 3 32 32 VTop 2
SYMATTR InstName C13
SYMATTR Value 22µ
SYMBOL schottky 1744 0 R0
SYMATTR InstName D14
SYMATTR Value CMDSH2-3
SYMBOL cap 1600 -48 R90
WINDOW 0 0 32 VBottom 2
WINDOW 3 32 32 VTop 2
SYMATTR InstName C14
SYMATTR Value 22µ
SYMBOL cap 1744 144 R0
SYMATTR InstName C15
SYMATTR Value 4.7µ
SYMBOL current 1824 144 R0
WINDOW 123 0 0 Left 0
WINDOW 39 0 0 Left 0
SYMATTR InstName I1
SYMATTR Value 20m
SYMBOL res -736 112 R0
SYMATTR InstName R1
SYMATTR Value 10K
SYMBOL res -736 80 R90
WINDOW 0 0 56 VBottom 2
WINDOW 3 32 56 VTop 2
SYMATTR InstName R2
SYMATTR Value 10K
SYMBOL res -592 80 R90
WINDOW 0 0 56 VBottom 2
WINDOW 3 32 56 VTop 2
SYMATTR InstName R3
SYMATTR Value 7.5k
SYMBOL voltage -1056 0 R0
SYMATTR InstName V2
SYMATTR Value 5
SYMBOL res -640 -192 R90
WINDOW 0 0 56 VBottom 2
WINDOW 3 32 56 VTop 2
SYMATTR InstName R4
SYMATTR Value 499
SYMBOL cap -768 -192 R90
WINDOW 0 0 32 VBottom 2
WINDOW 3 32 32 VTop 2
SYMATTR InstName C16
SYMATTR Value 47n
SYMATTR SpiceLine IC=2
SYMBOL OpAmps\\UniversalOpAmp2 -640 -64 R0
SYMATTR InstName U1
SYMATTR Value2 Avol=1Meg GBW=4Meg Slew=16Meg
SYMBOL pmos -288 -48 M180
SYMATTR InstName M1
SYMATTR Value IRF7309P
SYMBOL nmos -288 -16 R0
SYMATTR InstName M2
SYMATTR Value IRF7309N
SYMBOL voltage -1184 0 R0
WINDOW 123 0 0 Left 0
WINDOW 39 0 0 Left 0
SYMATTR InstName V1
SYMATTR Value 24
SYMBOL cap -368 -144 R90
WINDOW 0 0 32 VBottom 2
WINDOW 3 32 32 VTop 2
SYMATTR InstName C17
SYMATTR Value 100n
SYMBOL cap -368 48 R90
WINDOW 0 0 32 VBottom 2
WINDOW 3 32 32 VTop 2
SYMATTR InstName C18
SYMATTR Value 100n
SYMBOL res -240 -192 R90
WINDOW 0 0 56 VBottom 2
WINDOW 3 32 56 VTop 2
SYMATTR InstName R5
SYMATTR Value 10k
SYMBOL res -352 -96 R0
SYMATTR InstName R6
SYMATTR Value 76k
SYMBOL res -240 112 R90
WINDOW 0 0 56 VBottom 2
WINDOW 3 32 56 VTop 2
SYMATTR InstName R7
SYMATTR Value 10k
TEXT 320 280 Left 2 !.tran 0 50m 0
